

;;____________________________________________________________________________________________________
[TITLE]
;;Project Title/Notes

;;____________________________________________________________________________________________________
[OPTIONS]
FLOW_UNITS           LPS
INFILTRATION         HORTON
FLOW_ROUTING         DYNWAVE
LINK_OFFSETS         DEPTH
MIN_SLOPE            0
ALLOW_PONDING        NO
SKIP_STEADY_STATE    NO
START_DATE           08/28/2015
START_TIME           08:00:00
REPORT_START_DATE    08/28/2015
REPORT_START_TIME    08:00:00
END_DATE             08/28/2015
END_TIME             16:00:00
SWEEP_START          01/01
SWEEP_END            12/31
DRY_DAYS             8
REPORT_STEP          00:01:00
WET_STEP             00:01:00
DRY_STEP             00:01:00
ROUTING_STEP         0:00:30
RULE_STEP            00:01:00
INERTIAL_DAMPING     PARTIAL
NORMAL_FLOW_LIMITED  BOTH
FORCE_MAIN_EQUATION  H-W
VARIABLE_STEP        0.75
LENGTHENING_STEP     0
MIN_SURFAREA         1.14
MAX_TRIALS           8
HEAD_TOLERANCE       0.0015
SYS_FLOW_TOL         5
LAT_FLOW_TOL         5
MINIMUM_STEP         0.5
THREADS              4

;;____________________________________________________________________________________________________
[EVAPORATION]
;;Data Source    Parameters
;;-------------- ----------------
CONSTANT         0
DRY_ONLY         NO

;;____________________________________________________________________________________________________
[RAINGAGES]
;;Name           Format    Interval SCF      Source    
;;-------------- --------- ------ ------ ----------
RGe              INTENSITY 00:01    1        TIMESERIES rainfalle       
RGw              INTENSITY 00:01    1        TIMESERIES rainfallw

;;____________________________________________________________________________________________________
[SUBCATCHMENTS]
;;Name           Rain Gage        Outlet           Area     %Imperv  Width    %Slope   CurbLen  SnowPack        
;;-------------- ---------------- ---------------- -------- -------- -------- -------- -------- ----------------
sub60            RGe              YS02001745       1.314    88       108      0.64     0                        
sub61            RGe              YS02001759       1.835    83       127      0.96     0                        
sub62            RGe              YS02001770       2.74     92       138      0.78     0                        
sub63            RGe              YS02001664       2.27     71       138      0.8      0                        
sub64            RGe              YS02001644       2.402    85       124      0.43     0                        
sub65            RGe              YS02001633       2.753    87       236      0.12     0                        
sub66            RGe              YS02001619       4.663    71       194      0.16     0                        
sub67            RGw              YS02001887       1.86     92       204      0.78     0                        
sub68            RGw              YS02006558       2.752    86       156      0.84     0                        
sub69            RGe              YS02001601       3.702    85       165      0.41     0                        
sub70            RGe              YS02001586       2.889    66       127      0.09     0                        
sub71            RGw              YS02001915       2.615    92       128      0.4      0                        
sub72            RGw              YS02001929       1.375    93       89       0.12     0

;;____________________________________________________________________________________________________
[SUBAREAS]
;;Subcatchment   N-Imperv   N-Perv     S-Imperv   S-Perv     PctZero    RouteTo    PctRouted 
;;-------------- ---------- ---------- ---------- ---------- ---------- ---------- ----------
sub60            0.01       0.1        1.8        3.8        25         OUTLET    
sub61            0.01       0.1        1.8        3.8        25         OUTLET    
sub62            0.01       0.1        1.8        3.8        25         OUTLET    
sub63            0.01       0.1        1.8        3.8        25         OUTLET    
sub64            0.01       0.1        1.8        3.8        25         OUTLET    
sub65            0.01       0.1        1.8        3.8        25         OUTLET    
sub66            0.01       0.1        1.8        3.8        25         OUTLET    
sub67            0.01       0.1        1.8        3.8        25         OUTLET    
sub68            0.01       0.1        1.8        3.8        25         OUTLET    
sub69            0.01       0.1        0.05       0.05       25         OUTLET    
sub70            0.01       0.1        0.05       0.05       25         OUTLET    
sub71            0.01       0.1        1.8        3.8        25         OUTLET    
sub72            0.01       0.1        1.8        3.8        25         OUTLET

;;____________________________________________________________________________________________________
[INFILTRATION]
;;Subcatchment   MaxRate    MinRate    Decay      DryTime    MaxInfil  
;;-------------- ---------- ---------- ---------- ---------- ----------
sub60            20.6       3.94       6.55       7          0         
sub61            20.6       3.94       6.55       7          0         
sub62            20.6       3.94       6.55       7          0         
sub63            20.6       3.94       6.55       7          0         
sub64            20.6       3.94       6.55       7          0         
sub65            20.6       3.94       6.55       7          0         
sub66            20.6       3.94       6.55       7          0         
sub67            20.6       3.94       6.55       7          0         
sub68            20.6       3.94       6.55       7          0         
sub69            20.6       3.94       6.55       7          0         
sub70            20.6       3.94       6.55       7          0         
sub71            20.6       3.94       6.55       7          0         
sub72            20.6       3.94       6.55       7          0

;;____________________________________________________________________________________________________
[LID_CONTROLS]
;;Name           Type/Layer Parameters
;;-------------- ---------- ----------
GreenRoof        GR
GreenRoof        SURFACE    60         0.2        0.1        2.0        5         
GreenRoof        SOIL       150        0.437      0.105      0.047      29.97      10.0       60        
GreenRoof        DRAINMAT   100        0.5        0.1

;;____________________________________________________________________________________________________
[LID_USAGE]
;;Subcatchment   LID Process      Number  Area       Width      InitSat    FromImp    ToPerv     RptFile                  DrainTo          FromPerv  
;;-------------- ---------------- ------- ---------- ---------- ---------- ---------- ---------- ------------------------ ---------------- ----------

;;____________________________________________________________________________________________________
[JUNCTIONS]
;;Name           Elevation  MaxDepth   InitDepth  SurDepth   Aponded   
;;-------------- ---------- ---------- ---------- ---------- ----------
WS02003060       4.932      4.39       0          0          0         
WS02003066       5.554      4.36       0          0          0         
WS02003067       5.32       4.22       0          0          0         
WS02003069       4.585      4.76       0          0          0         
WS02003072       4.371      4.97       0          0          0         
WS02003073       4.065      5.49       0          0          0         
WS02004401       6          2.66       0          0          0         
WS02004402       5.96       2.74       0          0          0         
WS02004403       5.93       3.03       0          0          0         
WS02004404       5.85       3.78       0          0          0         
WS02004405       5.85       3.8        0          0          0         
WS02004406       5.83       3.45       0          0          0         
WS02004407       6.313      3.34       0          0          0         
WS02004409       5.77       3.36       0          0          0         
WS02004410       5.72       3.54       0          0          0         
WS02004411       5.68       3.53       0          0          0         
WS02004412       5.64       3.31       0          0          0         
WS02004413       5.47       3.2        0          0          0         
WS02006109       6.618      2.64       0          0          0         
WS02006110       6.585      2.76       0          0          0         
WS02006111       6.707      2.68       0          0          0         
WS02006112       5.883      2.68       0          0          0         
WS02006113       6.893      2.73       0          0          0         
WS02006115       6.139      3.26       0          0          0         
WS02006116       6.04       3.35       0          0          0         
WS02006228       6.651      3.03       0          0          0         
WS02006229       6.694      3.25       0          0          0         
WS02006230       6.745      2.65       0          0          0         
WS02006231       7.123      2.24       0          0          0         
WS02006232       7.039      2.18       0          0          0         
WS02006234       7.157      1.96       0          0          0         
WS02006235       7.164      2          0          0          0         
WS02006238       7.144      2.15       0          0          0         
WS02006239       7.209      2.03       0          0          0         
WS02006240       7.293      2.1        0          0          0         
WS02006242       7.269      1.55       0          0          0         
WS02006243       7.42       1.48       0          0          0         
WS02006245       7.485      1.56       0          0          0         
WS02006247       7.5        1.47       0          0          0         
WS02006248       7.587      1.1        0          0          0         
WS02006249       7.598      1.09       0          0          0         
WS02006251       7.67       2.21       0          0          0         
WS02006252       8.242      1.5        0          0          0         
WS02006256       6.935      2.35       0          0          0         
WSF200           5.2328     4.35       0          0          0         
YS02001580       8.541      1.05       0          0          0         
YS02001583       8.496      1.14       0          0          0         
YS02001586       8.173      1.13       0          0          0         
YS02001590       7.861      1.4        0          0          0         
YS02001593       7.862      1.46       0          0          0         
YS02001596       7.419      1.8        0          0          0         
YS02001600       7.13       1.87       0          0          0         
YS02001601       6.839      2.06       0          0          0         
YS02001602       6.901      1.87       0          0          0         
YS02001605       6.903      1.78       0          0          0         
YS02001607       6.848      1.68       0          0          0         
YS02001610       6.798      1.68       0          0          0         
YS02001613       6.841      1.7        0          0          0         
YS02001616       6.912      1.61       0          0          0         
YS02001619       6.929      1.61       0          0          0         
YS02001622       6.904      1.62       0          0          0         
YS02001625       6.604      1.78       0          0          0         
YS02001629       6.549      1.85       0          0          0         
YS02001633       6.454      2.08       0          0          0         
YS02001641       6.437      2.1        0          0          0         
YS02001644       6.432      1.92       0          0          0         
YS02001647       6.61       1.9        0          0          0         
YS02001649       6.39       2.05       0          0          0         
YS02001652       6.596      2.16       0          0          0         
YS02001655       6.85       2.2        0          0          0         
YS02001658       7.142      2.3        0          0          0         
YS02001661       7.404      2.46       0          0          0         
YS02001664       7.925      2.31       0          0          0         
YS02001745       7.517      2.35       0          0          0         
YS02001748       7.077      2.27       0          0          0         
YS02001751       6.879      2.2        0          0          0         
YS02001754       6.608      2.2        0          0          0         
YS02001757       6.261      2.21       0          0          0         
YS02001759       6.364      2.21       0          0          0         
YS02001762       6.4        2.15       0          0          0         
YS02001765       6.45       2.1        0          0          0         
YS02001767       6.489      2.03       0          0          0         
YS02001770       6.495      1.95       0          0          0         
YS02001774       6.422      2.05       0          0          0         
YS02001779       6.686      1.68       0          0          0         
YS02001783       6.141      2.4        0          0          0         
YS02001784       6.068      2.29       0          0          0         
YS02001786       6.03       2.23       0          0          0         
YS02001788       5.977      2.28       0          0          0         
YS02001790       5.645      1.957      0          0          0         
YS02001791       5.47       2.72       0          0          0         
YS02001793       4.832      3.6        0          0          0         
YS02001882       6.716      1.83       0          0          0         
YS02001884       6.617      1.93       0          0          0         
YS02001887       6.538      2          0          0          0         
YS02001890       6.506      1.81       0          0          0         
YS02001895       6.747      1.75       0          0          0         
YS02001898       6.735      1.77       0          0          0         
YS02001901       6.609      1.87       0          0          0         
YS02001904       6.63       1.85       0          0          0         
YS02001907       6.289      1.96       0          0          0         
YS02001910       6.507      2.1        0          0          0         
YS02001915       6.718      2          0          0          0         
YS02001918       7.066      1.81       0          0          0         
YS02001920       7.008      2.14       0          0          0         
YS02001923       7.26       2.03       0          0          0         
YS02001926       7.445      1.9        0          0          0         
YS02001929       7.694      1.78       0          0          0         
YS02006553       6.284      2.19       0          0          0         
YS02006556       6.311      2.39       0          0          0         
YS02006558       6.267      2.5        0          0          0         
YS02006561       6.66       1.95       0          0          0         
YS02163301       6.517      2.03       0          0          0         
YS02163601       6.398      2.08       0          0          0         
YS02164001       6.458      2.1        0          0          0

;;____________________________________________________________________________________________________
[OUTFALLS]
;;Name           Elevation  Type       Stage Data       Gated    Route To        
;;-------------- ---------- ---------- ---------------- -------- ----------------
CC-1             0          FREE                        NO                       
CC-2             0          FREE                        NO                       
JK-1             0          FREE                        NO                       
JK-2             0          FREE                        NO                       
WSC              0.67       FREE                        NO

;;____________________________________________________________________________________________________
[STORAGE]
;;Name           Elev.    MaxDepth   InitDepth  Shape      Curve Name/Params            N/A      Fevap    Psi      Ksat     IMD     
;;-------------- -------- ---------- ----------- ---------- ---------------------------- -------- --------          -------- --------
CC-storage       5.5      2.3        0.8        TABULAR    CCTXC                        0        0       
JK-storage       0.8      5.8        3          TABULAR    JKLQC                        0        0

;;____________________________________________________________________________________________________
[CONDUITS]
;;Name           From Node        To Node          Length     Roughness  InOffset   OutOffset  InitFlow   MaxFlow   
;;-------------- ---------------- ---------------- ---------- ---------- ---------- ---------- ---------- ----------
1                WS02003073       WSC              400        0.01       0          0          0          0         
WS02003060WS02003069 WS02003060       WS02003069       80.89      0.013      0          0          0          0         
WS02003066WSF200 WS02003066       WSF200           16.23      0.013      0.0528     0          0          0         
WS02003067WS02003066 WS02003067       WS02003066       36.54      0.013      0          0          0          0         
WS02003069WS02003072 WS02003069       WS02003072       75.41      0.013      0          0          0          0         
WS02003072WS02003073 WS02003072       WS02003073       42.55      0.013      0          0.3        0          0         
WS02004401WS02004402 WS02004401       WS02004402       33.14      0.013      0          0          0          0         
WS02004402WS02004403 WS02004402       WS02004403       35.6       0.013      0          0          0          0         
WS02004403WS02004404 WS02004403       WS02004404       24.03      0.013      0          0          0          0         
WS02004404WS02004405 WS02004404       WS02004405       16.82      0.013      0          0          0          0         
WS02004405WS02004406 WS02004405       WS02004406       44.74      0.013      0          0          0          0         
WS02004406WS02004407 WS02004406       WS02004407       55.46      0.013      0          0          0          0         
WS02004407WS02004409 WS02004407       WS02004409       39.19      0.013      0          0          0          0         
WS02004409WS02004410 WS02004409       WS02004410       48.08      0.013      0          0          0          0         
WS02004410WS02004411 WS02004410       WS02004411       42.9       0.013      0          0          0          0         
WS02004411WS02004412 WS02004411       WS02004412       46.4       0.013      0          0          0          0         
WS02004412WS02004413 WS02004412       WS02004413       43.84      0.013      0          0          0          0         
WS02004413WS02003067 WS02004413       WS02003067       37.95      0.013      0          0.51       0          0         
WS02006109WS02006110 WS02006109       WS02006110       49.78      0.013      0          0.11       0          0         
WS02006110WS02006113 WS02006110       WS02006113       44.59      0.013      0          0          0          0         
WS02006111WS02006112 WS02006111       WS02006112       32.19      0.013      0.01       0.02       0          0         
WS02006112WS02006115 WS02006112       WS02006115       53.28      0.013      0          0.01       0          0         
WS02006113WS02006111 WS02006113       WS02006111       46.74      0.013      0          0          0          0         
WS02006115WS02006116 WS02006115       WS02006116       36.93      0.013      0          0.06       0          0         
WS02006116WS02004401 WS02006116       WS02004401       43.69      0.013      0          0          0          0         
WS02006228WS02006109 WS02006228       WS02006109       43.4       0.013      0          0.02       0          0         
WS02006229WS02006228 WS02006229       WS02006228       24.94      0.013      0          0.03       0          0         
WS02006230WS02006229 WS02006230       WS02006229       42.49      0.013      0          0.05       0          0         
WS02006231WS02006230 WS02006231       WS02006230       39.48      0.013      0          0.38       0          0         
WS02006232WS02006231 WS02006232       WS02006231       35.41      0.013      0          0.01       0          0         
WS02006234WS02006232 WS02006234       WS02006232       41.43      0.013      0          0          0          0         
WS02006235WS02006234 WS02006235       WS02006234       28.65      0.013      0.01       0.02       0          0         
WS02006238WS02006235 WS02006238       WS02006235       8.55       0.013      0          0          0          0         
WS02006239WS02006238 WS02006239       WS02006238       39.53      0.013      0          0.02       0          0         
WS02006240WS02006239 WS02006240       WS02006239       37.38      0.013      0          0.04       0          0         
WS02006242WS02006240 WS02006242       WS02006240       46.01      0.013      0          0.01       0          0         
WS02006243WS02006242 WS02006243       WS02006242       47.39      0.013      0          0.03       0          0         
WS02006245WS02006243 WS02006245       WS02006243       41.28      0.013      0          0.01       0          0         
WS02006247WS02006245 WS02006247       WS02006245       26.97      0.013      0          0.01       0          0         
WS02006248WS02006247 WS02006248       WS02006247       31.3       0.013      0          0.01       0          0         
WS02006249WS02006248 WS02006249       WS02006248       23.17      0.013      0          0.02       0          0         
WS02006251WS02006249 WS02006251       WS02006249       51.36      0.013      0          0          0          0         
WS02006252WS02006251 WS02006252       WS02006251       3.39       0.013      0          0.63       0          0         
WS02006256WS02006235 WS02006256       WS02006235       23.99      0.013      0          0          0          0         
WSF200WS02003060 WSF200           WS02003060       38.06      0.01       0          0          0          0         
YS02001580YS02001583 YS02001580       YS02001583       25.48      0.013      0          0          0          0         
YS02001583YS02001586 YS02001583       YS02001586       29.6       0.013      0.04       0.02       0          0         
YS02001586YS02001590 YS02001586       YS02001590       30.31      0.013      0          0.05       0          0         
YS02001590YS02001593 YS02001590       YS02001593       31.2       0.013      0          0.02       0          0         
YS02001593YS02001596 YS02001593       YS02001596       29.43      0.013      0          0.13       0          0         
YS02001596YS02001600 YS02001596       YS02001600       29.81      0.013      0          0.08       0          0         
YS02001600YS02001601 YS02001600       YS02001601       30.36      0.013      0          0.02       0          0         
YS02001601YS02001602 YS02001601       YS02001602       30.5       0.013      0          0          0          0         
YS02001602YS02001605 YS02001602       YS02001605       33.77      0.013      0          0          0          0         
YS02001605YS02001607 YS02001605       YS02001607       62.36      0.013      0          0          0          0         
YS02001607YS02001610 YS02001607       YS02001610       25.99      0.013      0          0          0          0         
YS02001610YS02001613 YS02001610       YS02001613       32.87      0.013      0          0          0          0         
YS02001613YS02001616 YS02001613       YS02001616       29.98      0.013      0          0          0          0         
YS02001616YS02001619 YS02001616       YS02001619       29.46      0.013      0          0          0          0         
YS02001619YS02001622 YS02001619       YS02001622       31.22      0.013      0          0          0          0         
YS02001622YS02001625 YS02001622       YS02001625       49.11      0.013      0          0          0          0         
YS02001625YS02001629 YS02001625       YS02001629       42.25      0.013      0          0.38       0          0         
YS02001629YS02163301 YS02001629       YS02163301       27.9       0.013      0          0          0          0         
YS02001633YS02163601 YS02001633       YS02163601       48.15      0.013      0.02       0          0          0         
YS02001641YS02001644 YS02001641       YS02001644       30.04      0.013      0          0          0          0         
YS02001644YS02001647 YS02001644       YS02001647       35.31      0.013      0          0          0          0         
YS02001647YS02001649 YS02001647       YS02001649       35.26      0.013      0          0          0          0         
YS02001649YS02001757 YS02001649       YS02001757       27.31      0.013      0          0          0          0         
YS02001652YS02001649 YS02001652       YS02001649       29.09      0.013      0          0          0          0         
YS02001655YS02001652 YS02001655       YS02001652       30.37      0.013      0          0.03       0          0         
YS02001658YS02001655 YS02001658       YS02001655       30.21      0.013      0          0          0          0         
YS02001661YS02001658 YS02001661       YS02001658       29.4       0.013      0.07       0          0          0         
YS02001664YS02001661 YS02001664       YS02001661       29.46      0.013      0          0          0          0         
YS02001745YS02001748 YS02001745       YS02001748       30.67      0.013      0          0.08       0          0         
YS02001748YS02001751 YS02001748       YS02001751       29.04      0.013      0          0          0          0         
YS02001751YS02001754 YS02001751       YS02001754       29.52      0.013      0          0.05       0          0         
YS02001754YS02001757 YS02001754       YS02001757       32.37      0.013      0          0          0          0         
YS02001757CaochengTiaoxuchi YS02001757       CC-storage       138.52     0.01       0          0          0          0         
YS02001759YS02001757 YS02001759       YS02001757       29.9       0.013      0          0          0          0         
YS02001762YS02001759 YS02001762       YS02001759       27.47      0.013      0          0          0          0         
YS02001765YS02001762 YS02001765       YS02001762       25.27      0.013      0          0          0          0         
YS02001767YS02001765 YS02001767       YS02001765       35.47      0.013      0          0          0          0         
YS02001770YS02001767 YS02001770       YS02001767       54.12      0.013      0          0          0          0         
YS02001774YS02001770 YS02001774       YS02001770       24.16      0.013      0          0.03       0          0         
YS02001779YS02001774 YS02001779       YS02001774       38.53      0.013      0          0          0          0         
YS02001783YS02001784 YS02001783       YS02001784       24.26      0.013      0          0          0          0         
YS02001784YS02001785 YS02001784       YS02001786       35.99      0.013      0          0          0          0         
YS02001786YS02001788 YS02001786       YS02001788       34.41      0.013      0          0          0          0         
YS02001788YS02001790 YS02001788       YS02001790       31.54      0.013      0          0          0          0         
YS02001790YS02001791 YS02001790       YS02001791       36.23      0.013      0          0          0          0         
YS02001791YS02001793 YS02001791       YS02001793       20.58      0.013      0          0          0          0         
YS02001793JiankangQianchi YS02001793       JK-storage       25.04      0.01       0          0          0          0         
YS02001882YS02001884 YS02001882       YS02001884       29.47      0.013      0          0.06       0          0         
YS02001884YS02001887 YS02001884       YS02001887       29.57      0.013      0          0.05       0          0         
YS02001887YS02001890 YS02001887       YS02001890       30.31      0.013      0          0.05       0          0         
YS02001890YS02001895 YS02001890       YS02001895       30.09      0.013      0          0          0          0         
YS02001895YS02001898 YS02001895       YS02001898       31.16      0.013      0          0.03       0          0         
YS02001898YS02001901 YS02001898       YS02001901       30.14      0.013      0          0          0          0         
YS02001901YS02001904 YS02001901       YS02001904       29.04      0.013      0          0          0          0         
YS02001904YS02001907 YS02001904       YS02001907       24.02      0.013      0          -0.02      0          0         
YS02001907YS02006553 YS02001907       YS02006553       24.3       0.013      0          0.03       0          0         
YS02001910YS02001907 YS02001910       YS02001907       38         0.013      0          0.01       0          0         
YS02001915YS02001910 YS02001915       YS02001910       29.92      0.013      0          0          0          0         
YS02001918YS02001915 YS02001918       YS02001915       60.86      0.013      0          0          0          0         
YS02001920YS02001918 YS02001920       YS02001918       31.2       0.013      0          0          0          0         
YS02001923YS02001920 YS02001923       YS02001920       29.19      0.013      0          0          0          0         