

;;____________________________________________________________________________________________________
[TITLE]
;;Project Title/Notes

;;____________________________________________________________________________________________________
[OPTIONS]
FLOW_UNITS           LPS
INFILTRATION         HORTON
FLOW_ROUTING         DYNWAVE
LINK_OFFSETS         DEPTH
MIN_SLOPE            0
ALLOW_PONDING        NO
SKIP_STEADY_STATE    NO
START_DATE           08/28/2015
START_TIME           08:00:00
REPORT_START_DATE    08/28/2015
REPORT_START_TIME    08:00:00
END_DATE             08/28/2015
END_TIME             16:00:00
SWEEP_START          01/01
SWEEP_END            12/31
DRY_DAYS             8
REPORT_STEP          00:01:00
WET_STEP             00:01:00
DRY_STEP             00:01:00
ROUTING_STEP         0:00:30
RULE_STEP            00:01:00
INERTIAL_DAMPING     PARTIAL
NORMAL_FLOW_LIMITED  BOTH
FORCE_MAIN_EQUATION  H-W
VARIABLE_STEP        0.75
LENGTHENING_STEP     0
MIN_SURFAREA         1.14
MAX_TRIALS           8
HEAD_TOLERANCE       0.0015
SYS_FLOW_TOL         5
LAT_FLOW_TOL         5
MINIMUM_STEP         0.5
THREADS              4

;;____________________________________________________________________________________________________
[REPORT]
SUBCATCHMENTS  ALL
NODES          ALL
LINKS          ALL

;;____________________________________________________________________________________________________
[EVAPORATION]
CONSTANT  0
DRY_ONLY  NO

;;____________________________________________________________________________________________________
[JUNCTIONS]
HS02004478 9.228 1.86 0 0 0
HS02004479 9.204 1.85 0 0 0
HS02004480 9.241 1.81 0 0 0
HS02004770 9.831 1.42 0 0 0
HS02004777 9.799 1.48 0 0 0
HS02004785 9.901 1.49 0 0 0
HS02004788 9.899 1.42 0 0 0
HS02004792 9.524 1.6 0 0 0
HS02004799 9.211 1.76 0 0 0
HS02004802 9.129 1.92 0 0 0
HS02004807 9.17 1.92 0 0 0
HS02004817 8.848 2.44 0 0 0
HS02004824 9.403 2.01 0 0 0
HS02004830 9.469 2.03 0 0 0
HS02004837 9.58 2.04 0 0 0
HS02004842 9.27 2.22 0 0 0
HS02004848 9.601 2.07 0 0 0
HS02004852 9.512 2.12 0 0 0
HS02004856 9.426 2.07 0 0 0
HS02004862 9.384 2 0 0 0
HS02004870 9.287 2.1 0 0 0
HS02004876 9.03 2.26 0 0 0
HS02004881 9.029 2.15 0 0 0
HS02004901 9.823 1.42 0 0 0
WS02001211 4.838 4.1 0 0 0
WS02001212 5.064 3.9 0 0 0
WS02001213 4.762 4.25 0 0 0
WS02003059 4.687 4.53 0 0 0
WS02003060 4.932 4.39 0 0 0
WS02003066 5.554 4.36 0 0 0
WS02003067 5.32 4.22 0 0 0
WS02003069 4.585 4.76 0 0 0
WS02003072 4.371 4.97 0 0 0
WS02003073 4.065 5.49 0 0 0
WS02004138 7.249 2.3 0 0 0
WS02004139 4.91 3.88 0 0 0
WS02004401 6 2.66 0 0 0
WS02004402 5.96 2.74 0 0 0
WS02004403 5.93 3.03 0 0 0
WS02004404 5.85 3.78 0 0 0
WS02004405 5.85 3.8 0 0 0
WS02004406 5.83 3.45 0 0 0
WS02004407 6.313 3.34 0 0 0
WS02004409 5.77 3.36 0 0 0
WS02004410 5.72 3.54 0 0 0
WS02004411 5.68 3.53 0 0 0
WS02004412 5.64 3.31 0 0 0
WS02004413 5.47 3.2 0 0 0
WS02006109 6.618 2.64 0 0 0
WS02006110 6.585 2.76 0 0 0
WS02006111 6.707 2.68 0 0 0
WS02006112 5.883 2.68 0 0 0
WS02006113 6.893 2.73 0 0 0
WS02006115 6.139 3.26 0 0 0
WS02006116 6.04 3.35 0 0 0
WS02006228 6.651 3.03 0 0 0
WS02006229 6.694 3.25 0 0 0
WS02006230 6.745 2.65 0 0 0
WS02006231 7.123 2.24 0 0 0
WS02006232 7.039 2.18 0 0 0
WS02006234 7.157 1.96 0 0 0
WS02006235 7.164 2 0 0 0
WS02006238 7.144 2.15 0 0 0
WS02006239 7.209 2.03 0 0 0
WS02006240 7.293 2.1 0 0 0
WS02006242 7.269 1.55 0 0 0
WS02006243 7.42 1.48 0 0 0
WS02006245 7.485 1.56 0 0 0
WS02006247 7.5 1.47 0 0 0
WS02006248 7.587 1.1 0 0 0
WS02006249 7.598 1.09 0 0 0
WS02006251 7.67 2.21 0 0 0
WS02006252 8.242 1.5 0 0 0
WS02006253 7.644 3.52 0 0 0
WS02006256 6.935 2.35 0 0 0
WS02006280 8.271 1.83 0 0 0
WS02006284 8.399 2.08 0 0 0
WS02006287 8.955 1.89 0 0 0
WSF200 5.2328 4.35 0 0 0
YS02001580 8.541 1.05 0 0 0
YS02001583 8.496 1.14 0 0 0
YS02001586 8.173 1.13 0 0 0
YS02001590 7.861 1.4 0 0 0
YS02001593 7.862 1.46 0 0 0
YS02001596 7.419 1.8 0 0 0
YS02001600 7.13 1.87 0 0 0
YS02001601 6.839 2.06 0 0 0
YS02001602 6.901 1.87 0 0 0
YS02001605 6.903 1.78 0 0 0
YS02001607 6.848 1.68 0 0 0
YS02001610 6.798 1.68 0 0 0
YS02001613 6.841 1.7 0 0 0
YS02001616 6.912 1.61 0 0 0
YS02001619 6.929 1.61 0 0 0
YS02001622 6.904 1.62 0 0 0
YS02001625 6.604 1.78 0 0 0
YS02001629 6.549 1.85 0 0 0
YS02001633 6.454 2.08 0 0 0
YS02001641 6.437 2.1 0 0 0
YS02001644 6.432 1.92 0 0 0
YS02001647 6.61 1.9 0 0 0
YS02001649 6.39 2.05 0 0 0
YS02001652 6.596 2.16 0 0 0
YS02001655 6.85 2.2 0 0 0
YS02001658 7.142 2.3 0 0 0
YS02001661 7.404 2.46 0 0 0
YS02001664 7.925 2.31 0 0 0
YS02001745 7.517 2.35 0 0 0
YS02001748 7.077 2.27 0 0 0
YS02001751 6.879 2.2 0 0 0
YS02001754 6.608 2.2 0 0 0
YS02001757 6.261 2.21 0 0 0
YS02001759 6.364 2.21 0 0 0
YS02001762 6.4 2.15 0 0 0
YS02001765 6.45 2.1 0 0 0
YS02001767 6.489 2.03 0 0 0
YS02001770 6.495 1.95 0 0 0
YS02001774 6.422 2.05 0 0 0
YS02001779 6.686 1.68 0 0 0
YS02001783 6.141 2.4 0 0 0
YS02001784 6.068 2.29 0 0 0
YS02001786 6.03 2.23 0 0 0
YS02001788 5.977 2.28 0 0 0
YS02001790 5.645 1.957 0 0 0
YS02001791 5.47 2.72 0 0 0
YS02001793 4.832 3.6 0 0 0
YS02001882 6.716 1.83 0 0 0
YS02001884 6.617 1.93 0 0 0
YS02001887 6.538 2 0 0 0
YS02001890 6.506 1.81 0 0 0
YS02001895 6.747 1.75 0 0 0
YS02001898 6.735 1.77 0 0 0
YS02001901 6.609 1.87 0 0 0
YS02001904 6.63 1.85 0 0 0
YS02001907 6.289 1.96 0 0 0
YS02001910 6.507 2.1 0 0 0
YS02001915 6.718 2 0 0 0
YS02001918 7.066 1.81 0 0 0
YS02001920 7.008 2.14 0 0 0
YS02001923 7.26 2.03 0 0 0
YS02001926 7.445 1.9 0 0 0
YS02001929 7.694 1.78 0 0 0
YS02006553 6.284 2.19 0 0 0
YS02006556 6.311 2.39 0 0 0
YS02006558 6.267 2.5 0 0 0
YS02006561 6.66 1.95 0 0 0
YS02163301 6.517 2.03 0 0 0
YS02163601 6.398 2.08 0 0 0
YS02164001 6.458 2.1 0 0 0
YSB1154 9.058 2.1 0 0 0
YSB1171 8.904 1.95 0 0 0
YSB1174 9.109 1.95 0 0 0
YSB6556 9.169 1.8 0 0 0

;;____________________________________________________________________________________________________
[OUTFALLS]
CC-1 0 FREE  NO 
CC-2 0 FREE  NO 
JK-1 0 FREE  NO 
JK-2 0 FREE  NO 
WSC 0.67 FREE  NO

;;____________________________________________________________________________________________________
[STORAGE]
CC-storage 5.5 2.3 0.8 TABULAR CCTXC 0 0   
JK-storage 0.8 5.8 3 TABULAR JKLQC 0 0   
XR-storage -2 12 5 TABULAR XECQC 0 0

;;____________________________________________________________________________________________________
[DWF]
HS02004777 FLOW 0.03 HOURLY   
HS02004785 FLOW 0.15 HOURLY   
HS02004788 FLOW 1.67 HOURLY   
HS02004792 FLOW 0.28 HOURLY   
HS02004817 FLOW 0.6 HOURLY   
HS02004824 FLOW 0.05 HOURLY   
HS02004830 FLOW 0.15 HOURLY   
HS02004837 FLOW 6.35 HOURLY   
HS02004862 FLOW 0.2 HOURLY   
WS02004139 FLOW 0.321 HOURLY   
WS02004404 FLOW 0.162 HOURLY   
WS02004405 FLOW 0.0381 HOURLY   
WS02006109 FLOW 1.23 HOURLY   
WS02006251 FLOW 0.077 HOURLY   
WS02006284 FLOW 0.095634 HOURLY   
XR-storage FLOW 200    
YS02001633 FLOW 0.2 HOURLY   
YS02001644 FLOW 0.039 HOURLY   
YS02001655 FLOW 0.153881 HOURLY   
YS02001745 FLOW 0.0044 HOURLY   
YS02001748 FLOW 0.045 HOURLY   
YS02001751 FLOW 0.011 HOURLY   
YS02001754 FLOW 0.26 HOURLY   
YS02001759 FLOW 0.04 HOURLY   
YS02001767 FLOW 0.535 HOURLY   
YS02001770 FLOW 0.153 HOURLY   
YS02001779 FLOW 0.005 HOURLY   
YS02001784 FLOW 1.06 HOURLY   
YS02001786 FLOW 0.0563 HOURLY   
YS02001788 FLOW 0.071 HOURLY   
YS02001790 FLOW 0.155 HOURLY   
YS02001887 FLOW 0.45 HOURLY   
YS02001915 FLOW 0.0198 HOURLY   
YS02001920 FLOW 2.87 HOURLY   
YS02001923 FLOW 0.0377 HOURLY   
YS02001926 FLOW 0.052255 HOURLY   
YS02006558 FLOW 0.88 HOURLY   
YS02163601 FLOW 0.11 HOURLY

;;____________________________________________________________________________________________________
[INFLOWS]
WS02001211 FLOW "" FLOW 1 1 7.347 HOURLY
WS02003060 FLOW "" FLOW 1 1 16.529 HOURLY
WS02003069 FLOW "" FLOW 1 1 0.32 HOURLY
WS02003073 FLOW "" FLOW 1 1 1.821 HOURLY
WS02006230 FLOW "" FLOW 1 1 10.279 HOURLY

;;____________________________________________________________________________________________________
[CONDUITS]
1 WS02003073 WSC 400 0.01 0 0 0 
HS02004478WS02006287 HS02004478 WS02006287 16.13 0.013 0.02 0 0 
HS02004479HS02004480 HS02004479 HS02004480 12.17 0.013 0 0 0 
HS02004480HS02004478 HS02004480 HS02004478 18.76 0.013 0.01 0.02 0 
HS02004770HS02004777 HS02004770 HS02004777 37.73 0.013 0 0 0 
HS02004777HS02004785 HS02004777 HS02004785 54.43 0.013 0 0 0 
HS02004785HS02004788 HS02004785 HS02004788 40.08 0.013 0 0 0 
HS02004788HS02004792 HS02004788 HS02004792 57.89 0.013 0 0 0 
HS02004792HS02004799 HS02004792 HS02004799 41.35 0.013 0 0 0 
HS02004799HS02004480 HS02004799 HS02004480 22.51 0.013 0 0.01 0 
HS02004802HS02004478 HS02004802 HS02004478 27.15 0.013 0 0 0 
HS02004807HS02004802 HS02004807 HS02004802 39.84 0.013 0 0.01 0 
HS02004817HS02004807 HS02004817 HS02004807 39.81 0.013 0 0 0 
HS02004817HS02004824 HS02004817 HS02004824 39.76 0.013 0 0 0 
HS02004824HS02004830 HS02004824 HS02004830 39.85 0.013 0 0 0 
HS02004830HS02004837 HS02004830 HS02004837 38.82 0.013 0 0 0 
HS02004837HS02004842 HS02004837 HS02004842 38.94 0.013 0 0 0 
HS02004842HS02004848 HS02004842 HS02004848 39.57 0.013 0 0 0 
HS02004848HS02004852 HS02004848 HS02004852 39.87 0.013 0 0 0 
HS02004852HS02004856 HS02004852 HS02004856 39.66 0.013 0 0 0 
HS02004856HS02004862 HS02004856 HS02004862 39.25 0.013 0.07 0 0 
HS02004862HS02004870 HS02004862 HS02004870 39.9 0.013 0 0 0 
HS02004870HS02004876 HS02004870 HS02004876 39.88 0.013 0 0 0 
HS02004876HS02004881 HS02004876 HS02004881 39.88 0.013 0 0 0 
HS02004881HS02006253 HS02004881 WS02006253 23.81 0.01 0 0.34 0 
HS02004901HS02004770 HS02004901 HS02004770 39.92 0.013 0 0 0 
WS02001211WS02001212 WS02001211 WS02001212 75.94 0.013 0 0 0 
WS02001212WS02001213 WS02001212 WS02001213 24.63 0.013 0 0.32 0 
WS02001213WS02003059 WS02001213 WS02003059 86.11 0.013 0 0.02 0 
WS02003059WS02003060 WS02003059 WS02003060 60.05 0.013 0 0 0 
WS02003060WS02003069 WS02003060 WS02003069 80.89 0.013 0 0 0 
WS02003066WSF200 WS02003066 WSF200 16.23 0.013 0.0528 0 0 
WS02003067WS02003066 WS02003067 WS02003066 36.54 0.013 0 0 0 
WS02003069WS02003072 WS02003069 WS02003072 75.41 0.013 0 0 0 
WS02003072WS02003073 WS02003072 WS02003073 42.55 0.013 0 0.3 0 
WS02004138WS02004139 WS02004138 WS02004139 58.63 0.013 0 0.05 0 
WS02004139WS02001211 WS02004139 WS02001211 68 0.013 0 0.1 0 
WS02004401WS02004402 WS02004401 WS02004402 33.14 0.013 0 0 0 
WS02004402WS02004403 WS02004402 WS02004403 35.6 0.013 0 0 0 
WS02004403WS02004404 WS02004403 WS02004404 24.03 0.013 0 0 0 
WS02004404WS02004405 WS02004404 WS02004405 16.82 0.013 0 0 0 
WS02004405WS02004406 WS02004405 WS02004406 44.74 0.013 0 0 0 
WS02004406WS02004407 WS02004406 WS02004407 55.46 0.013 0 0 0 
WS02004407WS02004409 WS02004407 WS02004409 39.19 0.013 0 0 0 
WS02004409WS02004410 WS02004409 WS02004410 48.08 0.013 0 0 0 
WS02004410WS02004411 WS02004410 WS02004411 42.9 0.013 0 0 0 
WS02004411WS02004412 WS02004411 WS02004412 46.4 0.013 0 0 0 
WS02004412WS02004413 WS02004412 WS02004413 43.84 0.013 0 0 0 
WS02004413WS02003067 WS02004413 WS02003067 37.95 0.013 0 0.51 0 
WS02006109WS02006110 WS02006109 WS02006110 49.78 0.013 0 0.11 0 
WS02006110WS02006113 WS02006110 WS02006113 44.59 0.013 0 0 0 
WS02006111WS02006112 WS02006111 WS02006112 32.19 0.013 0.01 0.02 0 
WS02006112WS02006115 WS02006112 WS02006115 53.28 0.013 0 0.01 0 
WS02006113WS02006111 WS02006113 WS02006111 46.74 0.013 0 0 0 
WS02006115WS02006116 WS02006115 WS02006116 36.93 0.013 0 0.06 0 
WS02006116WS02004401 WS02006116 WS02004401 43.69 0.013 0 0 0 
WS02006228WS02006109 WS02006228 WS02006109 43.4 0.013 0 0.02 0 
WS02006229WS02006228 WS02006229 WS02006228 24.94 0.013 0 0.03 0 
WS02006230WS02006229 WS02006230 WS02006229 42.49 0.013 0 0.05 0 
WS02006231WS02006230 WS02006231 WS02006230 39.48 0.013 0 0.38 0 
WS02006232WS02006231 WS02006232 WS02006231 35.41 0.013 0 0.01 0 
WS02006234WS02006232 WS02006234 WS02006232 41.43 0.013 0 0 0 
WS02006235WS02006234 WS02006235 WS02006234 28.65 0.013 0.01 0.02 0 
WS02006238WS02006235 WS02006238 WS02006235 8.55 0.013 0 0 0 
WS02006239WS02006238 WS02006239 WS02006238 39.53 0.013 0 0.02 0 
WS02006240WS02006239 WS02006240 WS02006239 37.38 0.013 0 0.04 0 
WS02006242WS02006240 WS02006242 WS02006240 46.01 0.013 0 0.01 0 
WS02006243WS02006242 WS02006243 WS02006242 47.39 0.013 0 0.03 0 
WS02006245WS02006243 WS02006245 WS02006243 41.28 0.013 0 0.01 0 
WS02006247WS02006245 WS02006247 WS02006245 26.97 0.013 0 0.01 0 
WS02006248WS02006247 WS02006248 WS02006247 31.3 0.013 0 0.01 0 
WS02006249WS02006248 WS02006249 WS02006248 23.17 0.013 0 0.02 0 
WS02006251WS02006249 WS02006251 WS02006249 51.36 0.013 0 0 0 
WS02006252WS02006251 WS02006252 WS02006251 3.39 0.013 0 0.63 0 
WS02006253WS02006251 WS02006253 WS02006251 27.77 0.013 0 0.01 0 
WS02006256WS02006235 WS02006256 WS02006235 23.99 0.013 0 0 0 
WS02006280WS02006229 WS02006280 WS02006229 10.4 0.013 0 1.18 0 
WS02006284WS02006280 WS02006284 WS02006280 36.09 0.013 0.28 0.05 0 
WS02006287WS02006284 WS02006287 WS02006284 37.78 0.013 0 0.25 0 
WSF200WS02003060 WSF200 WS02003060 38.06 0.01 0 0 0 
YS02001580YS02001583 YS02001580 YS02001583 25.48 0.013 0 0 0 
YS02001583YS02001586 YS02001583 YS02001586 29.6 0.013 0.04 0.02 0 
YS02001586YS02001590 YS02001586 YS02001590 30.31 0.013 0 0.05 0 
YS02001590YS02001593 YS02001590 YS02001593 31.2 0.013 0 0.02 0 
YS02001593YS02001596 YS02001593 YS02001596 29.43 0.013 0 0.13 0 
YS02001596YS02001600 YS02001596 YS02001600 29.81 0.013 0 0.08 0 
YS02001600YS02001601 YS02001600 YS02001601 30.36 0.013 0 0.02 0 
YS02001601YS02001602 YS02001601 YS02001602 30.5 0.013 0 0 0 
YS02001602YS02001605 YS02001602 YS02001605 33.77 0.013 0 0 0 
YS02001605YS02001607 YS02001605 YS02001607 62.36 0.013 0 0 0 
YS02001607YS02001610 YS02001607 YS02001610 25.99 0.013 0 0 0 
YS02001610YS02001613 YS02001610 YS02001613 32.87 0.013 0 0 0 
YS02001613YS02001616 YS02001613 YS02001616 29.98 0.013 0 0 0 
YS02001616YS02001619 YS02001616 YS02001619 29.46 0.013 0 0 0 
YS02001619YS02001622 YS02001619 YS02001622 31.22 0.013 0 0 0 
YS02001622YS02001625 YS02001622 YS02001625 49.11 0.013 0 0 0 
YS02001625YS02001629 YS02001625 YS02001629 42.25 0.013 0 0.38 0 
YS02001629YS02163301 YS02001629 YS02163301 27.9 0.013 0 0 0 
YS02001633YS02163601 YS02001633 YS02163601 48.15 0.013 0.02 0 0 
YS02001641YS02001644 YS02001641 YS02001644 30.04 0.013 0 0 0 
YS02001644YS02001647 YS02001644 YS02001647 35.31 0.013 0 0 0 
YS02001647YS02001649 YS02001647 YS02001649 35.26 0.013 0 0 0 
YS02001649YS02001757 YS02001649 YS02001757 27.31 0.013 0 0 0 
YS02001652YS02001649 YS02001652 YS02001649 29.09 0.013 0 0 0 
YS02001655YS02001652 YS02001655 YS02001652 30.37 0.013 0 0.03 0 
YS02001658YS02001655 YS02001658 YS02001655 30.21 0.013 0 0 0 
YS02001661YS02001658 YS02001661 YS02001658 29.4 0.013 0.07 0 0 
YS02001664YS02001661 YS02001664 YS02001661 29.46 0.013 0 0 0 
YS02001745YS02001748 YS02001745 YS02001748 30.67 0.013 0 0.08 0 
YS02001748YS02001751 YS02001748 YS02001751 29.04 0.013 0 0 0 
YS02001751YS02001754 YS02001751 YS02001754 29.52 0.013 0 0.05 0 
YS02001754YS02001757 YS02001754 YS02001757 32.37 0.013 0 0 0 
YS02001757CaochengTiaoxuchi YS02001757 CC-storage 138.52 0.01 0 0 0 
YS02001759YS02001757 YS02001759 YS02001757 29.9 0.013 0 0 0 
YS02001762YS02001759 YS02001762 YS02001759 27.47 0.013 0 0 0 
YS02001765YS02001762 YS02001765 YS02001762 25.27 0.013 0 0 0 
YS02001767YS02001765 YS02001767 YS02001765 35.47 0.013 0 0 0 
YS02001770YS02001767 YS02001770 YS02001767 54.12 0.013 0 0 0 
YS02001774YS02001770 YS02001774 YS02001770 24.16 0.013 0 0.03 0 
YS02001779YS02001774 YS02001779 YS02001774 38.53 0.013 0 0 0 
YS02001783YS02001784 YS02001783 YS02001784 24.26 0.013 0 0 0 
YS02001784YS02001785 YS02001784 YS02001786 35.99 0.013 0 0 0 
YS02001786YS02001788 YS02001786 YS02001788 34.41 0.013 0 0 0 
YS02001788YS02001790 YS02001788 YS02001790 31.54 0.013 0 0 0 
YS02001790YS02001791 YS02001790 YS02001791 36.23 0.013 0 0 0 
YS02001791YS02001793 YS02001791 YS02001793 20.58 0.013 0 0 0 
YS02001793JiankangQianchi YS02001793 JK-storage 25.04 0.01 0 0 0 
YS02001882YS02001884 YS02001882 YS02001884 29.47 0.013 0 0.06 0 
YS02001884YS02001887 YS02001884 YS02001887 29.57 0.013 0 0.05 0 
YS02001887YS02001890 YS02001887 YS02001890 30.31 0.013 0 0.05 0 
YS02001890YS02001895 YS02001890 YS02001895 30.09 0.013 0 0 0 
YS02001895YS02001898 YS02001895 YS02001898 31.16 0.013 0 0.03 0 
YS02001898YS02001901 YS02001898 YS02001901 30.14 0.013 0 0 0 
YS02001901YS02001904 YS02001901 YS02001904 29.04 0.013 0 0 0 
YS02001904YS02001907 YS02001904 YS02001907 24.02 0.013 0 -0.02 0 
YS02001907YS02006553 YS02001907 YS02006553 24.3 0.013 0 0.03 0 
YS02001910YS02001907 YS02001910 YS02001907 38 0.013 0 0.01 0 
YS02001915YS02001910 YS02001915 YS02001910 29.92 0.013 0 0 0 
YS02001918YS02001915 YS02001918 YS02001915 60.86 0.013 0 0 0 
YS02001920YS02001918 YS02001920 YS02001918 31.2 0.013 0 0 0 
YS02001923YS02001920 YS02001923 YS02001920 29.19 0.013 0 0 0 
YS02001926YS02001923 YS02001926 YS02001923 29.31 0.013 0 0.21 0 
YS02001929YS02001926 YS02001929 YS02001926 32.28 0.013 0 0 0 
YS02006553YS02006556 YS02006553 YS02006556 28.19 0.013 0 0.04 0 
YS02006556YS02006558 YS02006556 YS02006558 15.77 0.013 0 0 0 
YS02006558YS02006561 YS02006558 YS02006561 19.71 0.013 0.5 0 0 
YS02006561YS02001783 YS02006561 YS02001783 24.35 0.013 0 0 0 
YS02163301YS02001633 YS02163301 YS02001633 32.01 0.013 0 0 0 
YS02163601YS02164001 YS02163601 YS02164001 27.08 0.013 0 0 0 
YS02164001YS02001641 YS02164001 YS02001641 22.51 0.013 0 0 0 
YSB1154YSB6556 YSB1154 YSB6556 30.79 0.013 0 0 0 
YSB1171HS02004479 YSB1171 HS02004479 19.41 0.013 0.05 0 0 
YSB1174YSB1171 YSB1174 YSB1171 31.21 0.013 0 0.05 0 
YSB6556YSB1171 YSB6556 YSB1171 24.1 0.013 0 0 0

;;____________________________________________________________________________________________________
[PUMPS]
CC-R1 CC-storage CC-1 CCYSBQX ON 1.2 0.5
CC-R2 CC-storage CC-2 CCYSBQX ON 1.4 0.5
CC-S1 CC-storage WS02006252 CCWSBQX ON 0.8 0.5
CC-S2 CC-storage WS02006252 CCWSBQX ON 1 0.5
JK-R1 JK-storage JK-1 JKLYSBQX ON 4.2 1.2
JK-R2 JK-storage JK-2 JKLYSBQX ON 4.3 1.2
JK-S JK-storage WS02006256 JKLWSBQX ON 4 1
XR-1 XR-storage WS02004138 XECSBQX ON 6 5
XR-2 XR-storage WS02004138 XECSBQX ON 7 5
XR-3 XR-storage WS02004138 XECSBQX ON 10 5
XR-4 XR-storage WS02004138 XECSBQX ON 10 5

;;____________________________________________________________________________________________________
[XSECTIONS]
1 CIRCULAR 1  0  0 0 1 
HS02004478WS02006287 RECT_CLOSED 0.9  1  0 0 1 
HS02004479HS02004480 RECT_CLOSED 0.7  1  0 0 1 
HS02004480HS02004478 RECT_CLOSED 0.7  1  0 0 1 
HS02004770HS02004777 RECT_CLOSED 0.7  1  0 0 1 
HS02004777HS02004785 RECT_CLOSED 0.7  1  0 0 1 
HS02004785HS02004788 RECT_CLOSED 0.7  1  0 0 1 
HS02004788HS02004792 RECT_CLOSED 0.7  1  0 0 1 
HS02004792HS02004799 RECT_CLOSED 0.7  1  0 0 1 
HS02004799HS02004480 RECT_CLOSED 0.7  1  0 0 1 
HS02004802HS02004478 RECT_CLOSED 0.7  1  0 0 1 
HS02004807HS02004802 RECT_CLOSED 0.7  1  0 0 1 
HS02004817HS02004807 RECT_CLOSED 0.7  1  0 0 1 
HS02004817HS02004824 RECT_CLOSED 0.7  1  0 0 1 
HS02004824HS02004830 RECT_CLOSED 0.7  1  0 0 1 
HS02004830HS02004837 RECT_CLOSED 0.7  1  0 0 1 
HS02004837HS02004842 RECT_CLOSED 0.7  1  0 0 1 
HS02004842HS02004848 RECT_CLOSED 0.7  1  0 0 1 
HS02004848HS02004852 RECT_CLOSED 0.7  1  0 0 1 
HS02004852HS02004856 RECT_CLOSED 0.7  1  0 0 1 
HS02004856HS02004862 RECT_CLOSED 0.7  1  0 0 1 
HS02004862HS02004870 RECT_CLOSED 0.7  1  0 0 1 
HS02004870HS02004876 RECT_CLOSED 0.7  1  0 0 1 
HS02004876HS02004881 RECT_CLOSED 0.7  1  0 0 1 
HS02004881HS02006253 RECT_CLOSED 0.7  1  0 0 1 
HS02004901HS02004770 RECT_CLOSED 0.7  1  0 0 1 
WS02001211WS02001212 CIRCULAR 1  0  0 0 1 
WS02001212WS02001213 CIRCULAR 1  0  0 0 1 
WS02001213WS02003059 CIRCULAR 1  0  0 0 1 
WS02003059WS02003060 CIRCULAR 1  0  0 0 1 
WS02003060WS02003069 CIRCULAR 1.2  0  0 0 1 
WS02003066WSF200 CIRCULAR 1.2  0  0 0 1 
WS02003067WS02003066 CIRCULAR 1.2  0  0 0 1 
WS02003069WS02003072 CIRCULAR 1.2  0  0 0 1 
WS02003072WS02003073 CIRCULAR 1.2  0  0 0 1 
WS02004138WS02004139 CIRCULAR 1  0  0 0 1 
WS02004139WS02001211 CIRCULAR 1.2  0  0 0 1 
WS02004401WS02004402 CIRCULAR 1  0  0 0 1 
WS02004402WS02004403 CIRCULAR 1  0  0 0 1 
WS02004403WS02004404 CIRCULAR 1  0  0 0 1 
WS02004404WS02004405 CIRCULAR 1  0  0 0 1 
WS02004405WS02004406 CIRCULAR 1  0  0 0 1 
WS02004406WS02004407 CIRCULAR 1  0  0 0 1 
WS02004407WS02004409 CIRCULAR 1  0  0 0 1 
WS02004409WS02004410 CIRCULAR 1  0  0 0 1 
WS02004410WS02004411 CIRCULAR 1  0  0 0 1 
WS02004411WS02004412 CIRCULAR 1  0  0 0 1 
WS02004412WS02004413 CIRCULAR 1  0  0 0 1 
WS02004413WS02003067 CIRCULAR 1  0  0 0 1 
WS02006109WS02006110 CIRCULAR 0.8  0  0 0 1 
WS02006110WS02006113 CIRCULAR 0.8  0  0 0 1 
WS02006111WS02006112 CIRCULAR 0.8  0  0 0 1 
WS02006112WS02006115 CIRCULAR 1  0  0 0 1 
WS02006113WS02006111 CIRCULAR 0.8  0  0 0 1 
WS02006115WS02006116 CIRCULAR 1  0  0 0 1 
WS02006116WS02004401 CIRCULAR 1  0  0 0 1 
WS02006228WS02006109 CIRCULAR 0.8  0  0 0 1 
WS02006229WS02006228 CIRCULAR 0.8  0  0 0 1 
WS02006230WS02006229 CIRCULAR 0.7  0  0 0 1 
WS02006231WS02006230 CIRCULAR 0.7  0  0 0 1 
WS02006232WS02006231 CIRCULAR 0.7  0  0 0 1 
WS02006234WS02006232 CIRCULAR 0.7  0  0 0 1 
WS02006235WS02006234 CIRCULAR 0.7  0  0 0 1 
WS02006238WS02006235 CIRCULAR 0.7  0  0 0 1 
WS02006239WS02006238 CIRCULAR 0.7  0  0 0 1 
WS02006240WS02006239 CIRCULAR 0.7  0  0 0 1 
WS02006242WS02006240 CIRCULAR 0.7  0  0 0 1 
WS02006243WS02006242 CIRCULAR 0.7  0  0 0 1 
WS02006245WS02006243 CIRCULAR 0.7  0  0 0 1 
WS02006247WS02006245 CIRCULAR 0.7  0  0 0 1 
WS02006248WS02006247 CIRCULAR 0.7  0  0 0 1 
WS02006249WS02006248 CIRCULAR 0.7  0  0 0 1 
WS02006251WS02006249 CIRCULAR 0.7  0  0 0 1 
WS02006252WS02006251 CIRCULAR 0.4  0  0 0 1 
WS02006253WS02006251 CIRCULAR 0.7  0  0 0 1 
WS02006256WS02006235 CIRCULAR 0.3  0  0 0 1 
WS02006280WS02006229 CIRCULAR 1  0  0 0 1 
WS02006284WS02006280 CIRCULAR 1  0  0 0 1 
WS02006287WS02006284 CIRCULAR 1  0  0 0 1 
WSF200WS02003060 CIRCULAR 1.2  0  0 0 1 
YS02001580YS02001583 CIRCULAR 0.6  0  0 0 1 
YS02001583YS02001586 CIRCULAR 0.6  0  0 0 1 
YS02001586YS02001590 CIRCULAR 0.6  0  0 0 1 
YS02001590YS02001593 CIRCULAR 0.6  0  0 0 1 
YS02001593YS02001596 CIRCULAR 0.6  0  0 0 1 
YS02001596YS02001600 CIRCULAR 0.6  0  0 0 1 
YS02001600YS02001601 CIRCULAR 0.6  0  0 0 1 
YS02001601YS02001602 CIRCULAR 0.6  0  0 0 1 
YS02001602YS02001605 CIRCULAR 0.6  0  0 0 1 
YS02001605YS02001607 CIRCULAR 0.6  0  0 0 1 
YS02001607YS02001610 CIRCULAR 1  0  0 0 1 
YS02001610YS02001613 CIRCULAR 1  0  0 0 1 
YS02001613YS02001616 CIRCULAR 1  0  0 0 1 
YS02001616YS02001619 CIRCULAR 1  0  0 0 1 
YS02001619YS02001622 CIRCULAR 1  0  0 0 1 
YS02001622YS02001625 CIRCULAR 1  0  0 0 1 
YS02001625YS02001629 CIRCULAR 1  0  0 0 1 
YS02001629YS02163301 CIRCULAR 1  0  0 0 1 
YS02001633YS02163601 CIRCULAR 1  0  0 0 1 
YS02001641YS02001644 CIRCULAR 1  0  0 0 1 
YS02001644YS02001647 CIRCULAR 1  0  0 0 1 
YS02001647YS02001649 CIRCULAR 1  0  0 0 1 
YS02001649YS02001757 CIRCULAR 1  0  0 0 1 
YS02001652YS02001649 CIRCULAR 1  0  0 0 1 
YS02001655YS02001652 CIRCULAR 1  0  0 0 1 
YS02001658YS02001655 CIRCULAR 1  0  0 0 1 
YS02001661YS02001658 CIRCULAR 1  0  0 0 1 
YS02001664YS02001661 CIRCULAR 1  0  0 0 1 
YS02001745YS02001748 CIRCULAR 1  0  0 0 1 
YS02001748YS02001751 CIRCULAR 1  0  0 0 1 
YS02001751YS02001754 CIRCULAR 1  0  0 0 1 
YS02001754YS02001757 CIRCULAR 1  0  0 0 1 
YS02001757CaochengTiaoxuchi CIRCULAR 1  0  0 0 1 
YS02001759YS02001757 CIRCULAR 1  0  0 0 1 
YS02001762YS02001759 CIRCULAR 1  0  0 0 1 
YS02001765YS02001762 CIRCULAR 1  0  0 0 1 
YS02001767YS02001765 CIRCULAR 1  0  0 0 1 
YS02001770YS02001767 CIRCULAR 1  0  0 0 1 
YS02001774YS02001770 CIRCULAR 1  0  0 0 1 
YS02001779YS02001774 CIRCULAR 1  0  0 0 1 
YS02001783YS02001784 CIRCULAR 0.8  0  0 0 1 
YS02001784YS02001785 CIRCULAR 0.8  0  0 0 1 
YS02001786YS02001788 CIRCULAR 0.8  0  0 0 1 
YS02001788YS02001790 CIRCULAR 0.8  0  0 0 1 
YS02001790YS02001791 CIRCULAR 0.8  0  0 0 1 
YS02001791YS02001793 CIRCULAR 0.8  0  0 0 1 
YS02001793JiankangQianchi CIRCULAR 1  0  0 0 1 
YS02001882YS02001884 CIRCULAR 1  0  0 0 1 
YS02001884YS02001887 CIRCULAR 1  0  0 0 1 
YS02001887YS02001890 CIRCULAR 1  0  0 0 1 
YS02001890YS02001895 CIRCULAR 1  0  0 0 1 
YS02001895YS02001898 CIRCULAR 1  0  0 0 1 
YS02001898YS02001901 CIRCULAR 1  0  0 0 1 
YS02001901YS02001904 CIRCULAR 1  0  0 0 1 
YS02001904YS02001907 CIRCULAR 1  0  0 0 1 
YS02001907YS02006553 RECT_CLOSED 0.9  1  0 0 1 
YS02001910YS02001907 CIRCULAR 1  0  0 0 1 
YS02001915YS02001910 CIRCULAR 1  0  0 0 1 
YS02001918YS02001915 CIRCULAR 1  0  0 0 1 
YS02001920YS02001918 CIRCULAR 1  0  0 0 1 
YS02001923YS02001920 CIRCULAR 1  0  0 0 1 
YS02001926YS02001923 CIRCULAR 1  0  0 0 1 
YS02001929YS02001926 CIRCULAR 1  0  0 0 1 
YS02006553YS02006556 CIRCULAR 1  0  0 0 1 
YS02006556YS02006558 CIRCULAR 1  0  0 0 1 
YS02006558YS02006561 CIRCULAR 0.6  0  0 0 1 
YS02006561YS02001783 CIRCULAR 0.8  0  0 0 1 
YS02163301YS02001633 CIRCULAR 1  0  0 0 1 
YS02163601YS02164001 CIRCULAR 1  0  0 0 1 
YS02164001YS02001641 CIRCULAR 1  0  0 0 1 
YSB1154YSB6556 CIRCULAR 0.7  0  0 0 1 
YSB1171HS02004479 CIRCULAR 0.8  0  0 0 1 
YSB1174YSB1171 CIRCULAR 0.7  0  0 0 1 
YSB6556YSB1171 CIRCULAR 0.7  0  0 0 1

;;____________________________________________________________________________________________________
[CURVES]
CCTXC  STORAGE  0.0000 2787.0000
CCTXC           1.0000 2787.0000
CCTXC           2.0000 2787.0000

CCWSBQX  PUMP2  0.3000 200.0000
CCWSBQX         1.0000 200.0000
CCWSBQX         2.0000 200.0000

CCYSBQX  PUMP2  1.0000 683.0000
CCYSBQX         2.0000 683.0000

JKLQC  STORAGE  0.0000 50.2400
JKLQC           2.0000 50.2400
JKLQC           4.0000 50.2400
JKLQC           5.8000 50.2400

JKLWSBQX  PUMP2  0.0000 300.0000
JKLWSBQX         1.0000 300.0000
JKLWSBQX         3.0000 300.0000
JKLWSBQX         5.8000 300.0000

JKLYSBQX  PUMP2  0.0000 1000.0000
JKLYSBQX         1.0000 1000.0000
JKLYSBQX         2.0000 1000.0000
JKLYSBQX         3.0000 1000.0000
JKLYSBQX         5.8000 1000.0000

XECQC  STORAGE  0.0000 120.0000
XECQC          10.0000 120.0000
XECQC          12.0000 120.0000

XECSBQX  PUMP2  0.0000 95.0000
XECSBQX        12.0000 95.0000

;;____________________________________________________________________________________________________
[TIMESERIES]
rainfalle 08/28/2015 09:00:00 8.717289815363362
rainfalle 08/28/2015 09:01:00 9.219009137603706
rainfalle 08/28/2015 09:02:00 9.774521423602994
rainfalle 08/28/2015 09:03:00 10.392281866594539
rainfalle 08/28/2015 09:04:00 11.082522400984596
rainfalle 08/28/2015 09:05:00 11.857726616902939
rainfalle 08/28/2015 09:06:00 12.733261205769564
rainfalle 08/28/2015 09:07:00 13.7282262354681
rainfalle 08/28/2015 09:08:00 14.866616055792235
rainfalle 08/28/2015 09:09:00 16.178928586355987
rainfalle 08/28/2015 09:10:00 17.70443385824884
rainfalle 08/28/2015 09:11:00 19.494431805021577
rainfalle 08/28/2015 09:12:00 21.617028513707155
rainfalle 08/28/2015 09:13:00 24.164303156216718
rainfalle 08/28/2015 09:14:00 27.263348074674525
rainfalle 08/28/2015 09:15:00 31.093791188490236
rainfalle 08/28/2015 09:16:00 35.916579976218216
rainfalle 08/28/2015 09:17:00 42.12319510817947
rainfalle 08/28/2015 09:18:00 50.32385870268341
rainfalle 08/28/2015 09:19:00 61.51482927449729
rainfalle 08/28/2015 09:20:00 77.4183878814077
rainfalle 08/28/2015 09:21:00 101.23627948487947
rainfalle 08/28/2015 09:22:00 139.5177364117953
rainfalle 08/28/2015 09:23:00 207.5535519268626
rainfalle 08/28/2015 09:24:00 244.04534768094962
rainfalle 08/28/2015 09:25:00 216.8862521929661
rainfalle 08/28/2015 09:26:00 194.21098171146093
rainfalle 08/28/2015 09:27:00 175.07162612207458
rainfalle 08/28/2015 09:28:00 158.75966665643352
rainfalle 08/28/2015 09:29:00 144.73667269934055
rainfalle 08/28/2015 09:30:00 132.58737785483973
rainfalle 08/28/2015 09:31:00 121.98722843656469
rainfalle 08/28/2015 09:32:00 112.67951066956101
rainfalle 08/28/2015 09:33:00 104.45895102578817
rainfalle 08/28/2015 09:34:00 97.15977401323684
rainfalle 08/28/2015 09:35:00 90.64688223093228
rainfalle 08/28/2015 09:36:00 84.80925774106211
rainfalle 08/28/2015 09:37:00 79.55496646159304
rainfalle 08/28/2015 09:38:00 74.807334634054
rainfalle 08/28/2015 09:39:00 70.50199268892143
rainfalle 08/28/2015 09:40:00 66.5845682474837
rainfalle 08/28/2015 09:41:00 63.00886998585966
rainfalle 08/28/2015 09:42:00 59.73544627921683
rainfalle 08/28/2015 09:43:00 56.73043258542961
rainfalle 08/28/2015 09:44:00 53.964623162610366
rainfalle 08/28/2015 09:45:00 51.412718462876086
rainfalle 08/28/2015 09:46:00 49.05271112272317
rainfalle 08/28/2015 09:47:00 46.865382062524645
rainfalle 08/28/2015 09:48:00 44.83388464056645
rainfalle 08/28/2015 09:49:00 42.94339966351245
rainfalle 08/28/2015 09:50:00 41.180847750216714
rainfalle 08/28/2015 09:51:00 39.5346483784229
rainfalle 08/28/2015 09:52:00 37.99451713023686
rainfalle 08/28/2015 09:53:00 36.55129435151238
rainfalle 08/28/2015 09:54:00 35.196799768943805
rainfalle 08/28/2015 09:55:00 33.92370865417959
rainfalle 08/28/2015 09:56:00 32.72544595127812
rainfalle 08/28/2015 09:57:00 31.59609544215499
rainfalle 08/28/2015 09:58:00 30.530321550740496
rainfalle 08/28/2015 09:59:00 29.523301809786915
rainfalle 08/28/2015 10:00:00 28.570668355792748
rainfalle 08/28/2015 10:01:00 27.668457094611938
rainfalle 08/28/2015 10:02:00 26.813063406248716
rainfalle 08/28/2015 10:03:00 26.001203442044698
rainfalle 08/28/2015 10:04:00 25.229880219199288
rainfalle 08/28/2015 10:05:00 24.49635384289479
rainfalle 08/28/2015 10:06:00 23.798115289818895
rainfalle 08/28/2015 10:07:00 23.132863272954864
rainfalle 08/28/2015 10:08:00 22.49848377935251
rainfalle 08/28/2015 10:09:00 21.893031932536076
rainfalle 08/28/2015 10:10:00 21.314715881583197
rainfalle 08/28/2015 10:11:00 20.761882461355867
rainfalle 08/28/2015 10:12:00 20.233004403983728
rainfalle 08/28/2015 10:13:00 19.726668912193475
rainfalle 08/28/2015 10:14:00 19.241567430628663
rainfalle 08/28/2015 10:15:00 18.776486473280443
rainfalle 08/28/2015 10:16:00 18.330299383756312
rainfalle 08/28/2015 10:17:00 17.90195892121119